  Page 1                                    Fri Oct 09 20:08:58 2015

  ******************************************************************
  *                           E P A N E T                          *
  *                   Hydraulic and Water Quality                  *
  *                   Analysis for Pipe Networks                   *
  *                         Version 2.00.12                        *
  ******************************************************************
  
  Analysis begun Fri Oct 09 20:08:58 2015

  Analysis ended Fri Oct 09 20:08:58 2015
